L24/1726527/Reguladores.dss
! REGULADORES — gerados de UNREMT
! vreg = 122 V e band = 2 V — AJUSTES TIPICOS, nao de campo.
! kVA = 5000 adotado; a BDGD nao traz a potencia do regulador.
! O ptratio segue a tensao de cada alimentador (TP para 120 V).
New Transformer.REG_351997703_1 phases=1 windings=2 XHL=0.04
~ buses=[segm_351997752.1 segm_351997691.1] conns=[wye wye]
~ kVs=[7.9674 7.9674] kVAs=[5000 5000] %Rs=[0.01 0.01]
~ maxtap=1.10 mintap=0.90 numtaps=32
New RegControl.RC_REG_351997703_1 transformer=REG_351997703_1 winding=2 vreg=122 band=2 ptratio=66.4 delay=15 maxtapchange=1
New Transformer.REG_351997703_2 phases=1 windings=2 XHL=0.04
~ buses=[segm_351997752.2 segm_351997691.2] conns=[wye wye]
~ kVs=[7.9674 7.9674] kVAs=[5000 5000] %Rs=[0.01 0.01]
~ maxtap=1.10 mintap=0.90 numtaps=32
New RegControl.RC_REG_351997703_2 transformer=REG_351997703_2 winding=2 vreg=122 band=2 ptratio=66.4 delay=15 maxtapchange=1
New Transformer.REG_351997703_3 phases=1 windings=2 XHL=0.04
~ buses=[segm_351997752.3 segm_351997691.3] conns=[wye wye]
~ kVs=[7.9674 7.9674] kVAs=[5000 5000] %Rs=[0.01 0.01]
~ maxtap=1.10 mintap=0.90 numtaps=32
New RegControl.RC_REG_351997703_3 transformer=REG_351997703_3 winding=2 vreg=122 band=2 ptratio=66.4 delay=15 maxtapchange=1
New Transformer.REG_353973812_1 phases=1 windings=2 XHL=0.04
~ buses=[segm_353973861.1 segm_353973800.1] conns=[wye wye]
~ kVs=[7.9674 7.9674] kVAs=[5000 5000] %Rs=[0.01 0.01]
~ maxtap=1.10 mintap=0.90 numtaps=32
New RegControl.RC_REG_353973812_1 transformer=REG_353973812_1 winding=2 vreg=122 band=2 ptratio=66.4 delay=15 maxtapchange=1
New Transformer.REG_353973812_2 phases=1 windings=2 XHL=0.04
~ buses=[segm_353973861.2 segm_353973800.2] conns=[wye wye]
~ kVs=[7.9674 7.9674] kVAs=[5000 5000] %Rs=[0.01 0.01]
~ maxtap=1.10 mintap=0.90 numtaps=32
New RegControl.RC_REG_353973812_2 transformer=REG_353973812_2 winding=2 vreg=122 band=2 ptratio=66.4 delay=15 maxtapchange=1
New Transformer.REG_353973812_3 phases=1 windings=2 XHL=0.04
~ buses=[segm_353973861.3 segm_353973800.3] conns=[wye wye]
~ kVs=[7.9674 7.9674] kVAs=[5000 5000] %Rs=[0.01 0.01]
~ maxtap=1.10 mintap=0.90 numtaps=32
New RegControl.RC_REG_353973812_3 transformer=REG_353973812_3 winding=2 vreg=122 band=2 ptratio=66.4 delay=15 maxtapchange=1
New Transformer.REG_353974108_1 phases=1 windings=2 XHL=0.04
~ buses=[segm_353974157.1 segm_353974096.1] conns=[wye wye]
~ kVs=[7.9674 7.9674] kVAs=[5000 5000] %Rs=[0.01 0.01]
~ maxtap=1.10 mintap=0.90 numtaps=32
New RegControl.RC_REG_353974108_1 transformer=REG_353974108_1 winding=2 vreg=122 band=2 ptratio=66.4 delay=15 maxtapchange=1
New Transformer.REG_353974108_2 phases=1 windings=2 XHL=0.04
~ buses=[segm_353974157.2 segm_353974096.2] conns=[wye wye]
~ kVs=[7.9674 7.9674] kVAs=[5000 5000] %Rs=[0.01 0.01]
~ maxtap=1.10 mintap=0.90 numtaps=32
New RegControl.RC_REG_353974108_2 transformer=REG_353974108_2 winding=2 vreg=122 band=2 ptratio=66.4 delay=15 maxtapchange=1
New Transformer.REG_353974108_3 phases=1 windings=2 XHL=0.04
~ buses=[segm_353974157.3 segm_353974096.3] conns=[wye wye]
~ kVs=[7.9674 7.9674] kVAs=[5000 5000] %Rs=[0.01 0.01]
~ maxtap=1.10 mintap=0.90 numtaps=32
New RegControl.RC_REG_353974108_3 transformer=REG_353974108_3 winding=2 vreg=122 band=2 ptratio=66.4 delay=15 maxtapchange=1
